!Version from 26.11.2015
!!!!!!!!!!!!!!!!!!!!!!!!!!!!!!!!!!!!!!!!!!!!!!!!!!!!!!!!!!!!!!!!!!!!!
! How to cite: V. P. Zhukov, and A. F. Kong, A compact reaction
! mechanism of methane oxidation at high pressures,
! Progress in Reaction Kinetics and Mechanism, 2018, 43(1), 62-78
! https://doi.org/10.3184/146867818X15066862094914
!!!!!!!!!!!!!!!!!!!!!!!!!!!!!!!!!!!!!!!!!!!!!!!!!!!!!!!!!!!!!!!!!!!!!
ELEMENTS
H C O N AR
END
SPECIES
H2      H       O       O2      OH      H2O     HO2     H2O2
CH2     CH3     CH4     CO      CO2     HCO     CH2O    CH3O
C2H3    C2H4    C2H5    C2H6    CH3O2   N2      AR
END
REACTIONS      CAL/MOLE              
O2+CH2O<=>HO2+HCO                        1.000E+14    0.000  40000.00
H+O2+M<=>HO2+M                           2.800E+18   -0.860      0.00
O2/0.00/ H2O/0.00/ CO/0.75/ CO2/1.50/ C2H6/1.50/ N2/0.00/ AR/0.00/   
H+2O2<=>HO2+O2                           3.000E+20   -1.720      0.00
H+CH2O(+M)<=>CH3O(+M)                    5.400E+11    0.454   2600.00
     LOW  /  2.200E+30   -4.800   5560.00/                           
     TROE/  0.7580   94.00  1555.00  4200.00 /                      
H2/2.00/ H2O/6.00/ CH4/2.00/ CO/1.50/ CO2/2.00/ C2H6/3.00/          
2OH(+M)<=>H2O2(+M)                       7.400E+13   -0.370      0.00
     LOW  /  2.300E+18   -0.900  -1700.00/                           
     TROE/  0.7346   94.00  1756.00  5182.00 /                       
H2/2.00/ H2O/6.00/ CH4/2.00/ CO/1.50/ CO2/2.00/ C2H6/3.00/ AR/0.70/  
OH+HO2<=>O2+H2O                          2.900E+13    0.000   -500.00
OH+H2O2<=>HO2+H2O                        1.750E+12    0.000    320.00
 DUPLICATE                                                           
OH+H2O2<=>HO2+H2O                        5.800E+14    0.000   9560.00
 DUPLICATE 
OH+CH4<=>CH3+H2O                         1.000E+08    1.600   3120.00
2HO2<=>O2+H2O2                           1.300E+11    0.000  -1630.00
 DUPLICATE                                                           
2HO2<=>O2+H2O2                           4.200E+14    0.000  12000.00
 DUPLICATE                                                           
HO2+CH3<=>O2+CH4                         1.000E+12    0.000      0.00
HO2+CH3<=>OH+CH3O                        2.000E+13    0.000      0.00
HO2+CO<=>OH+CO2                          1.500E+14    0.000  23600.00
HO2+CH2O<=>HCO+H2O2                      1.000E+12    0.000   8000.00
CH3+O2<=>O+CH3O                          2.675E+13    0.000  28800.00
CH3+O2<=>OH+CH2O                         3.600E+10    0.000   8940.00
CH3+H2O2<=>HO2+CH4                       2.450E+04    2.470   5180.00
CH3+CH2O<=>HCO+CH4                       3.320E+03    2.810   5860.00
CH3O+HO2<=>CH2O+H2O2                     1.200E+13    0.000      0.00
CH3O2+CH3<=>CH3O+CH3O                    3.000E+13    0.000  -1200.00
CH3O+O2<=>HO2+CH2O                       4.280E-13    7.600  -3530.00
CH3+O2<=>CH3O2                           1.700E+60  -15.100  18785.00
CH3O+CH3<=>CH2O+CH4                      2.410E+13    0.000      0.00
O+CH4<=>OH+CH3                           1.020E+09    1.500   8600.00
H+O2<=>O+OH                              8.300E+13    0.000  14413.00
H+O2+H2O<=>HO2+H2O                       9.380E+18   -0.760      0.00
O+H2<=>H+OH                              5.000E+04    2.670   6290.00
O+CH3<=>H+CH2O                           8.430E+13    0.000      0.00
O+CO+M<=>CO2+M                           6.020E+14    0.000   3000.00
H2/2.00/ O2/6.00/ H2O/6.00/ CH4/2.00/ CO/1.50/ CO2/3.50/ C2H6/3.00/ AR/0.50/
H+OH+M<=>H2O+M                           2.200E+22   -2.000      0.00
H2/0.73/ H2O/3.65/ CH4/2.00/ C2H6/3.00/ AR/0.38/ 
H+CH3(+M)<=>CH4(+M)                      1.270E+16   -0.630    383.00
     LOW  /  2.477E+33   -4.760   2440.00/             
     TROE/  0.7830   74.00  2941.00  6964.00 /                       
H2/2.00/ H2O/6.00/ CH4/2.00/ CO/1.50/ CO2/2.00/ C2H6/3.00/ AR/0.70/
H+HCO(+M)<=>CH2O(+M)                     1.090E+12    0.480   -260.00
     LOW  /  1.350E+24   -2.570   1425.00/                           
     TROE/  0.7824  271.00  2755.00  6570.00 /                       
H2/2.00/ H2O/6.00/ CH4/2.00/ CO/1.50/ CO2/2.00/ C2H6/3.00/ AR/0.70/  
H+C2H4(+M)<=>C2H5(+M)                    1.080E+12    0.454   1820.00
     LOW  /  1.200E+42   -7.620   6970.00/                        
     TROE/  0.9753  210.00   984.00  4374.00 /                     
H2/2.00/ H2O/6.00/ CH4/2.00/ CO/1.50/ CO2/2.00/ C2H6/3.00/ AR/0.70/  
H+C2H4<=>C2H3+H2                         1.325E+06    2.530  12240.00
H+C2H6<=>C2H5+H2                         1.150E+08    1.900   7530.00
OH+H2<=>H+H2O                            2.160E+08    1.510   3430.00
OH+CH2<=>H+CH2O                          2.000E+13    0.000      0.00
OH+C2H6<=>C2H5+H2O                       3.540E+06    2.120    870.00
HCO+O2<=>HO2+CO                          7.600E+12    0.000    400.00
HCO+M<=>H+CO+M                           1.870E+17   -1.000  17000.00
H2/2.00/ H2O/12.0/ CH4/2.00/ CO/1.50/ CO2/2.00/ C2H6/3.00/ 
CH3+OH<=>CH2O+H2                         8.000E+12    0.000      0.00
CH2+CH3<=>H+C2H4                         4.000E+13    0.000      0.00
O2+CO<=>O+CO2                            2.500E+12    0.000  47800.00
OH+CO<=>H+CO2                            4.760E+07    1.228     70.00
OH+CH2O<=>HCO+H2O                        3.430E+09    1.180   -447.00
H+CH2O<=>HCO+H2                          2.300E+10    1.050   3275.00
H+CH4<=>CH3+H2                           6.600E+08    1.620  10840.00
2CH3(+M)<=>C2H6(+M)                      2.120E+16   -0.970    620.00
     LOW  /  1.770E+50   -9.670   6220.00/                       
     TROE/  0.5325  151.00  1038.00  4970.00 /                      
H2/2.00/ H2O/6.00/ CH4/2.00/ CO/1.50/ CO2/2.00/ C2H6/3.00/ AR/0.70/  
H+O2+N2<=>HO2+N2                         2.600E+19   -1.240      0.00
H+O2+AR<=>HO2+AR                         7.000E+17   -0.800      0.00
END
